12313376
  -OEChem-12212404523D

 64 69  0     1  0  0  0  0  0999 V2000
    0.4186    2.0994    0.2484 O   0  0  0  0  0  0  0  0  0  0  0  0
    3.1580    2.2207    0.8569 O   0  0  0  0  0  0  0  0  0  0  0  0
    2.0281   -2.6756   -2.0857 O   0  0  0  0  0  0  0  0  0  0  0  0
    4.9062    2.7601   -0.5568 O   0  0  0  0  0  0  0  0  0  0  0  0
   -2.2328   -3.2375    0.7819 O   0  0  0  0  0  0  0  0  0  0  0  0
   -2.2291   -1.2966   -0.4657 O   0  0  0  0  0  0  0  0  0  0  0  0
   -4.8188    0.8460   -2.5223 O   0  0  0  0  0  0  0  0  0  0  0  0
    0.1261   -0.1195    1.2193 C   0  0  1  0  0  0  0  0  0  0  0  0
    2.7155    0.1839   -0.0520 C   0  0  1  0  0  0  0  0  0  0  0  0
    2.1720   -1.2404   -0.1048 C   0  0  1  0  0  0  0  0  0  0  0  0
    0.6034   -1.1003    0.0523 C   0  0  1  0  0  0  0  0  0  0  0  0
    0.9246    1.2274    1.2904 C   0  0  1  0  0  0  0  0  0  0  0  0
    2.4237    1.0169    1.1535 C   0  0  2  0  0  0  0  0  0  0  0  0
    4.1931    0.4209   -0.2937 C   0  0  2  0  0  0  0  0  0  0  0  0
   -1.1756    0.5182    0.8399 C   0  0  0  0  0  0  0  0  0  0  0  0
   -0.8860    1.6452   -0.0916 C   0  0  1  0  0  0  0  0  0  0  0  0
    0.1385   -0.7668    2.6124 C   0  0  0  0  0  0  0  0  0  0  0  0
   -0.1594   -2.4392    0.1047 C   0  0  0  0  0  0  0  0  0  0  0  0
    2.5837   -1.7314   -1.5253 C   0  0  0  0  0  0  0  0  0  0  0  0
    2.7980   -2.2080    0.9062 C   0  0  0  0  0  0  0  0  0  0  0  0
   -2.4587    0.4957    1.2254 C   0  0  0  0  0  0  0  0  0  0  0  0
   -2.0235    2.6089    0.2029 C   0  0  0  0  0  0  0  0  0  0  0  0
    4.1587    1.9300   -0.0644 C   0  0  0  0  0  0  0  0  0  0  0  0
   -3.1903    1.7003    0.6584 C   0  0  1  0  0  0  0  0  0  0  0  0
    4.4661   -0.0847   -1.6772 C   0  0  0  0  0  0  0  0  0  0  0  0
    5.2274   -0.1480    0.6840 C   0  0  0  0  0  0  0  0  0  0  0  0
    3.7393   -1.0688   -2.2357 C   0  0  0  0  0  0  0  0  0  0  0  0
   -3.1566   -0.4205    2.1667 C   0  0  0  0  0  0  0  0  0  0  0  0
   -1.6455   -2.2216    0.0823 C   0  0  0  0  0  0  0  0  0  0  0  0
   -4.0850    1.3238   -0.4586 C   0  0  0  0  0  0  0  0  0  0  0  0
   -5.4586    1.0099   -0.3740 C   0  0  0  0  0  0  0  0  0  0  0  0
   -3.7397    1.2112   -1.7815 C   0  0  0  0  0  0  0  0  0  0  0  0
   -5.8607    0.7257   -1.6582 C   0  0  0  0  0  0  0  0  0  0  0  0
   -3.6609   -3.1852    0.8620 C   0  0  0  0  0  0  0  0  0  0  0  0
    2.2016    0.7055   -0.8875 H   0  0  0  0  0  0  0  0  0  0  0  0
    0.2852   -0.6425   -0.8979 H   0  0  0  0  0  0  0  0  0  0  0  0
    0.7310    1.7639    2.2302 H   0  0  0  0  0  0  0  0  0  0  0  0
    2.8210    0.5898    2.0802 H   0  0  0  0  0  0  0  0  0  0  0  0
   -0.8753    1.3229   -1.1368 H   0  0  0  0  0  0  0  0  0  0  0  0
   -0.2935   -0.0945    3.3643 H   0  0  0  0  0  0  0  0  0  0  0  0
   -0.4298   -1.6974    2.6624 H   0  0  0  0  0  0  0  0  0  0  0  0
    1.1546   -0.9895    2.9454 H   0  0  0  0  0  0  0  0  0  0  0  0
    0.1051   -3.0019    1.0048 H   0  0  0  0  0  0  0  0  0  0  0  0
    0.0752   -3.0720   -0.7548 H   0  0  0  0  0  0  0  0  0  0  0  0
    2.8721   -1.7795    1.9072 H   0  0  0  0  0  0  0  0  0  0  0  0
    2.2374   -3.1439    0.9798 H   0  0  0  0  0  0  0  0  0  0  0  0
    3.8017   -2.5189    0.6034 H   0  0  0  0  0  0  0  0  0  0  0  0
   -2.2557    3.2526   -0.6525 H   0  0  0  0  0  0  0  0  0  0  0  0
   -1.7346    3.2829    1.0217 H   0  0  0  0  0  0  0  0  0  0  0  0
   -3.7560    2.2180    1.4425 H   0  0  0  0  0  0  0  0  0  0  0  0
    5.2998    0.3381   -2.2304 H   0  0  0  0  0  0  0  0  0  0  0  0
    4.9277   -0.0337    1.7302 H   0  0  0  0  0  0  0  0  0  0  0  0
    5.4389   -1.2062    0.5071 H   0  0  0  0  0  0  0  0  0  0  0  0
    6.1854    0.3771    0.5755 H   0  0  0  0  0  0  0  0  0  0  0  0
    3.9721   -1.4305   -3.2316 H   0  0  0  0  0  0  0  0  0  0  0  0
   -3.4047    0.1341    3.0793 H   0  0  0  0  0  0  0  0  0  0  0  0
   -2.5561   -1.2710    2.4809 H   0  0  0  0  0  0  0  0  0  0  0  0
   -4.1035   -0.7628    1.7475 H   0  0  0  0  0  0  0  0  0  0  0  0
   -6.0830    0.9905    0.5079 H   0  0  0  0  0  0  0  0  0  0  0  0
   -2.8293    1.3463   -2.3461 H   0  0  0  0  0  0  0  0  0  0  0  0
   -6.8031    0.4364   -2.0998 H   0  0  0  0  0  0  0  0  0  0  0  0
   -4.1237   -2.4098    0.2461 H   0  0  0  0  0  0  0  0  0  0  0  0
   -3.9579   -3.0823    1.9085 H   0  0  0  0  0  0  0  0  0  0  0  0
   -4.0408   -4.1498    0.5104 H   0  0  0  0  0  0  0  0  0  0  0  0
  1 12  1  0  0  0  0
  1 16  1  0  0  0  0
  2 13  1  0  0  0  0
  2 23  1  0  0  0  0
  3 19  2  0  0  0  0
  4 23  2  0  0  0  0
  5 29  1  0  0  0  0
  5 34  1  0  0  0  0
  6 29  2  0  0  0  0
  7 32  1  0  0  0  0
  7 33  1  0  0  0  0
  8 11  1  0  0  0  0
  8 12  1  0  0  0  0
  8 15  1  0  0  0  0
  8 17  1  0  0  0  0
  9 10  1  0  0  0  0
  9 13  1  0  0  0  0
  9 14  1  0  0  0  0
  9 35  1  0  0  0  0
 10 11  1  0  0  0  0
 10 19  1  0  0  0  0
 10 20  1  0  0  0  0
 11 18  1  0  0  0  0
 11 36  1  0  0  0  0
 12 13  1  0  0  0  0
 12 37  1  0  0  0  0
 13 38  1  0  0  0  0
 14 23  1  0  0  0  0
 14 25  1  0  0  0  0
 14 26  1  0  0  0  0
 15 16  1  0  0  0  0
 15 21  2  0  0  0  0
 16 22  1  0  0  0  0
 16 39  1  0  0  0  0
 17 40  1  0  0  0  0
 17 41  1  0  0  0  0
 17 42  1  0  0  0  0
 18 29  1  0  0  0  0
 18 43  1  0  0  0  0
 18 44  1  0  0  0  0
 19 27  1  0  0  0  0
 20 45  1  0  0  0  0
 20 46  1  0  0  0  0
 20 47  1  0  0  0  0
 21 24  1  0  0  0  0
 21 28  1  0  0  0  0
 22 24  1  0  0  0  0
 22 48  1  0  0  0  0
 22 49  1  0  0  0  0
 24 30  1  0  0  0  0
 24 50  1  0  0  0  0
 25 27  2  0  0  0  0
 25 51  1  0  0  0  0
 26 52  1  0  0  0  0
 26 53  1  0  0  0  0
 26 54  1  0  0  0  0
 27 55  1  0  0  0  0
 28 56  1  0  0  0  0
 28 57  1  0  0  0  0
 28 58  1  0  0  0  0
 30 31  1  0  0  0  0
 30 32  2  0  0  0  0
 31 33  2  0  0  0  0
 31 59  1  0  0  0  0
 32 60  1  0  0  0  0
 33 61  1  0  0  0  0
 34 62  1  0  0  0  0
 34 63  1  0  0  0  0
 34 64  1  0  0  0  0
M  END
> <PUBCHEM_COMPOUND_CID>
12313376

> <PUBCHEM_CONFORMER_RMSD>
0.8

> <PUBCHEM_CONFORMER_DIVERSEORDER>
3
1
2

> <PUBCHEM_MMFF94_PARTIAL_CHARGES>
33
1 -0.56
10 0.06
12 0.28
13 0.28
14 0.2
15 -0.28
16 0.42
18 0.06
19 0.49
2 -0.43
21 -0.28
23 0.66
24 0.32
25 -0.29
27 -0.14
28 0.14
29 0.66
3 -0.57
30 -0.18
31 -0.15
32 -0.01
33 -0.01
34 0.28
4 -0.57
5 -0.43
51 0.15
55 0.15
59 0.15
6 -0.57
60 0.15
61 0.15
7 -0.28
8 0.14

> <PUBCHEM_EFFECTIVE_ROTOR_COUNT>
5

> <PUBCHEM_PHARMACOPHORE_FEATURES>
11
1 1 acceptor
1 3 acceptor
1 4 acceptor
1 6 acceptor
1 7 acceptor
5 1 8 12 15 16 rings
5 15 16 21 22 24 rings
5 2 9 13 14 23 rings
5 7 30 31 32 33 rings
6 8 9 10 11 12 13 rings
6 9 10 14 19 25 27 rings

> <PUBCHEM_HEAVY_ATOM_COUNT>
34

> <PUBCHEM_ATOM_DEF_STEREO_COUNT>
9

> <PUBCHEM_ATOM_UDEF_STEREO_COUNT>
0

> <PUBCHEM_BOND_DEF_STEREO_COUNT>
0

> <PUBCHEM_BOND_UDEF_STEREO_COUNT>
0

> <PUBCHEM_ISOTOPIC_ATOM_COUNT>
0

> <PUBCHEM_COMPONENT_COUNT>
1

> <PUBCHEM_CACTVS_TAUTO_COUNT>
1

> <PUBCHEM_CONFORMER_ID>
00BBE32000000003

> <PUBCHEM_MMFF94_ENERGY>
140.9845

> <PUBCHEM_FEATURE_SELFOVERLAP>
56.573

> <PUBCHEM_SHAPE_FINGERPRINT>
10498660 4 18408326596295559212
10930396 42 17611996333027445490
11285246 1 16837998364600243559
11578080 2 18187085074220585990
11796584 16 14836112269988904925
11961588 58 17967522485448239069
12422481 6 17910994457929094243
12788726 201 18059005082468353649
12969540 114 18261108543994536341
13140716 1 18271812358563517120
13224815 77 18335146383827232744
13383661 66 16269962439533857934
13583140 156 17603872186619538440
14659021 117 16687415780748156990
14747281 78 17974277722161430877
14790565 3 18194971734305523737
17349148 13 17916298343080938010
17492 54 18410013191419344797
20691752 17 18267308620975031017
20715895 44 18262511498855913501
20775438 99 18058710464585931463
21033648 144 18337100271972916004
21360443 126 18187074084417367559
22182313 1 18270406104044110835
22393880 68 18409737287379486446
23227448 37 18339369650976142396
23559900 14 18271537399221252406
23566358 2 18271536393317871947
238 59 18269556048506604446
27425 322 17458903867910422580
4058900 60 18043803188053985989
460360 51 18334579018600491226
463206 1 16916770912302823295
469060 322 17459482207201034107
508706 21 18341903943779334572
6036956 94 16672760965460301972
6086070 43 18411139139220011694
6669772 16 18260819389183985466
9709674 26 18201165355891091284

> <PUBCHEM_SHAPE_MULTIPOLES>
658.62
10.74
3.22
2.04
2.85
1.41
-0.44
-3.86
-5.04
0.32
0.15
0.57
0.4
1.7

> <PUBCHEM_SHAPE_SELFOVERLAP>
1479.204

> <PUBCHEM_SHAPE_VOLUME>
348.1

> <PUBCHEM_COORDINATE_TYPE>
2
5
10

$$$$
